Examples/GICExample/GICtest_Curr_Elem.Txt

CIRCUIT ELEMENT CURRENTS

(Currents into element from indicated bus)

Power Delivery Elements

  Bus     Phase    Magnitude, A     Angle      (Real)   +j  (Imag)

ELEMENT = "Vsource.SOURCE"
SOURCEBUS     1                0 /_    0.0 =          0 +j         0
SOURCEBUS     2                0 /_    0.0 =          0 +j         0
SOURCEBUS     3                0 /_    0.0 =          0 +j         0
------------
SOURCEBUS     0                0 /_    0.0 =          0 +j         0
SOURCEBUS     0                0 /_    0.0 =          0 +j         0
SOURCEBUS     0                0 /_    0.0 =          0 +j         0

ELEMENT = "GICTransformer.T1"
2             1       0.00039802 /_   90.0 =  1.8792E-009 +j 0.00039802
2             2       0.00039802 /_   90.0 =  1.8799E-009 +j 0.00039802
2             3       0.00039802 /_   90.0 =  1.8799E-009 +j 0.00039802
------------
2             4       0.00039802 /_  -90.0 =  -1.8792E-009 +j -0.00039802
2             4       0.00039802 /_  -90.0 =  -1.8799E-009 +j -0.00039802
2             4       0.00039802 /_  -90.0 =  -1.8799E-009 +j -0.00039802

ELEMENT = "GICTransformer.T2"
4             1           6.9411 /_    0.0 =     6.9411 +j 2.561E-005
4             2           6.9411 /_    0.0 =     6.9411 +j 2.561E-005
4             3           6.9411 /_    0.0 =     6.9411 +j 2.561E-005
------------
4             4           6.9411 /_ -180.0 =    -6.9411 +j -2.561E-005
4             4           6.9411 /_ -180.0 =    -6.9411 +j -2.561E-005
4             4           6.9411 /_ -180.0 =    -6.9411 +j -2.561E-005
------------
3             1           5.1834 /_    0.0 =     5.1834 +j 2.4233E-006
3             2           5.1834 /_    0.0 =     5.1834 +j 2.4233E-006
3             3           5.1834 /_    0.0 =     5.1834 +j 2.4233E-006
------------
4             4           5.1834 /_ -180.0 =    -5.1834 +j -2.4233E-006
4             4           5.1834 /_ -180.0 =    -5.1834 +j -2.4233E-006
4             4           5.1834 /_ -180.0 =    -5.1834 +j -2.4233E-006

ELEMENT = "GICTransformer.T3"
17            1           31.548 /_    0.0 =     31.548 +j -2.3311E-005
17            2           31.548 /_    0.0 =     31.548 +j -2.3311E-005
17            3           31.548 /_    0.0 =     31.548 +j -2.3311E-005
------------
17            4           31.548 /_  180.0 =    -31.548 +j 2.3311E-005
17            4           31.548 /_  180.0 =    -31.548 +j 2.3311E-005
17            4           31.548 /_  180.0 =    -31.548 +j 2.3311E-005

ELEMENT = "GICTransformer.T4"
17            1           31.548 /_    0.0 =     31.548 +j -2.3311E-005
17            2           31.548 /_    0.0 =     31.548 +j -2.3311E-005
17            3           31.548 /_    0.0 =     31.548 +j -2.3311E-005
------------
17            4           31.548 /_  180.0 =    -31.548 +j 2.3311E-005
17            4           31.548 /_  180.0 =    -31.548 +j 2.3311E-005
17            4           31.548 /_  180.0 =    -31.548 +j 2.3311E-005

ELEMENT = "GICTransformer.T5"
15            1           34.889 /_    0.0 =     34.889 +j -0.00012387
15            2           34.889 /_    0.0 =     34.889 +j -0.00012387
15            3           34.889 /_    0.0 =     34.889 +j -0.00012387
------------
16            1           34.889 /_  180.0 =    -34.889 +j 0.00012387
16            2           34.889 /_  180.0 =    -34.889 +j 0.00012387
16            3           34.889 /_  180.0 =    -34.889 +j 0.00012387
------------
16            1           18.249 /_    0.0 =     18.249 +j -2.1898E-005
16            2           18.249 /_    0.0 =     18.249 +j -2.1898E-005
16            3           18.249 /_    0.0 =     18.249 +j -2.1898E-005
------------
15            4           18.249 /_  180.0 =    -18.249 +j 2.1898E-005
15            4           18.249 /_  180.0 =    -18.249 +j 2.1898E-005
15            4           18.249 /_  180.0 =    -18.249 +j 2.1898E-005

ELEMENT = "GICTransformer.T6"
6             1           59.087 /_ -180.0 =    -59.087 +j -0.00075224
6             2           59.087 /_ -180.0 =    -59.087 +j -0.00075224
6             3           59.087 /_ -180.0 =    -59.087 +j -0.00075224
------------
6             4           59.087 /_    0.0 =     59.087 +j 0.00075224
6             4           59.087 /_    0.0 =     59.087 +j 0.00075224
6             4           59.087 /_    0.0 =     59.087 +j 0.00075224

ELEMENT = "GICTransformer.T7"
6             1           59.087 /_ -180.0 =    -59.087 +j -0.00075224
6             2           59.087 /_ -180.0 =    -59.087 +j -0.00075224
6             3           59.087 /_ -180.0 =    -59.087 +j -0.00075224
------------
6             4           59.087 /_    0.0 =     59.087 +j 0.00075224
6             4           59.087 /_    0.0 =     59.087 +j 0.00075224
6             4           59.087 /_    0.0 =     59.087 +j 0.00075224

ELEMENT = "GICTransformer.T8"
5             1           17.893 /_    0.0 =     17.893 +j 0.0015127
5             2           17.893 /_    0.0 =     17.893 +j 0.0015127
5             3           17.893 /_    0.0 =     17.893 +j 0.0015127
------------
5             4           17.893 /_ -180.0 =    -17.893 +j -0.0015127
5             4           17.893 /_ -180.0 =    -17.893 +j -0.0015127
5             4           17.893 /_ -180.0 =    -17.893 +j -0.0015127
------------
20            1           6.9831 /_ -180.0 =    -6.9831 +j -0.00016214
20            2           6.9831 /_ -180.0 =    -6.9831 +j -0.00016214
20            3           6.9831 /_ -180.0 =    -6.9831 +j -0.00016214
------------
5             4           6.9831 /_    0.0 =     6.9831 +j 0.00016214
5             4           6.9831 /_    0.0 =     6.9831 +j 0.00016214
5             4           6.9831 /_    0.0 =     6.9831 +j 0.00016214

ELEMENT = "GICTransformer.T9"
5             1           17.893 /_    0.0 =     17.893 +j 0.0015127
5             2           17.893 /_    0.0 =     17.893 +j 0.0015127
5             3           17.893 /_    0.0 =     17.893 +j 0.0015127
------------
5             4           17.893 /_ -180.0 =    -17.893 +j -0.0015127
5             4           17.893 /_ -180.0 =    -17.893 +j -0.0015127
5             4           17.893 /_ -180.0 =    -17.893 +j -0.0015127
------------
20            1           6.9831 /_ -180.0 =    -6.9831 +j -0.00016214
20            2           6.9831 /_ -180.0 =    -6.9831 +j -0.00016214
20            3           6.9831 /_ -180.0 =    -6.9831 +j -0.00016214
------------
5             4           6.9831 /_    0.0 =     6.9831 +j 0.00016214
5             4           6.9831 /_    0.0 =     6.9831 +j 0.00016214
5             4           6.9831 /_    0.0 =     6.9831 +j 0.00016214

ELEMENT = "GICTransformer.T10"
12            1           22.383 /_ -180.0 =    -22.383 +j -0.00078421
12            2           22.383 /_ -180.0 =    -22.383 +j -0.00078421
12            3           22.383 /_ -180.0 =    -22.383 +j -0.00078421
------------
12            4           22.383 /_    0.0 =     22.383 +j 0.00078421
12            4           22.383 /_    0.0 =     22.383 +j 0.00078421
12            4           22.383 /_    0.0 =     22.383 +j 0.00078421

ELEMENT = "GICTransformer.T11"
12            1           22.383 /_ -180.0 =    -22.383 +j -0.00078421
12            2           22.383 /_ -180.0 =    -22.383 +j -0.00078421
12            3           22.383 /_ -180.0 =    -22.383 +j -0.00078421
------------
12            4           22.383 /_    0.0 =     22.383 +j 0.00078421
12            4           22.383 /_    0.0 =     22.383 +j 0.00078421
12            4           22.383 /_    0.0 =     22.383 +j 0.00078421

ELEMENT = "GICTransformer.T12"
4             1           21.747 /_    0.0 =     21.747 +j 0.00012199
4             2           21.747 /_    0.0 =     21.747 +j 0.00012199
4             3           21.747 /_    0.0 =     21.747 +j 0.00012199
------------
3             1           21.747 /_ -180.0 =    -21.747 +j -0.00012199
3             2           21.747 /_ -180.0 =    -21.747 +j -0.00012199
3             3           21.747 /_ -180.0 =    -21.747 +j -0.00012199
------------
3             1            8.639 /_    0.0 =      8.639 +j 4.0388E-006
3             2            8.639 /_    0.0 =      8.639 +j 4.0388E-006
3             3            8.639 /_    0.0 =      8.639 +j 4.0388E-006
------------
4             4            8.639 /_ -180.0 =     -8.639 +j -4.0388E-006
4             4            8.639 /_ -180.0 =     -8.639 +j -4.0388E-006
4             4            8.639 /_ -180.0 =     -8.639 +j -4.0388E-006

ELEMENT = "GICTransformer.T13"
4             1           6.9411 /_    0.0 =     6.9411 +j 2.561E-005
4             2           6.9411 /_    0.0 =     6.9411 +j 2.561E-005
4             3           6.9411 /_    0.0 =     6.9411 +j 2.561E-005
------------
4             4           6.9411 /_ -180.0 =    -6.9411 +j -2.561E-005
4             4           6.9411 /_ -180.0 =    -6.9411 +j -2.561E-005
4             4           6.9411 /_ -180.0 =    -6.9411 +j -2.561E-005
------------
3             1           5.1834 /_    0.0 =     5.1834 +j 2.4233E-006
3             2           5.1834 /_    0.0 =     5.1834 +j 2.4233E-006
3             3           5.1834 /_    0.0 =     5.1834 +j 2.4233E-006
------------
4             4           5.1834 /_ -180.0 =    -5.1834 +j -2.4233E-006
4             4           5.1834 /_ -180.0 =    -5.1834 +j -2.4233E-006
4             4           5.1834 /_ -180.0 =    -5.1834 +j -2.4233E-006

ELEMENT = "GICTransformer.T14"
4             1           21.747 /_    0.0 =     21.747 +j 0.00012199
4             2           21.747 /_    0.0 =     21.747 +j 0.00012199
4             3           21.747 /_    0.0 =     21.747 +j 0.00012199
------------
3             1           21.747 /_ -180.0 =    -21.747 +j -0.00012199
3             2           21.747 /_ -180.0 =    -21.747 +j -0.00012199
3             3           21.747 /_ -180.0 =    -21.747 +j -0.00012199
------------
3             1            8.639 /_    0.0 =      8.639 +j 4.0388E-006
3             2            8.639 /_    0.0 =      8.639 +j 4.0388E-006
3             3            8.639 /_    0.0 =      8.639 +j 4.0388E-006
------------
4             4            8.639 /_ -180.0 =     -8.639 +j -4.0388E-006
4             4            8.639 /_ -180.0 =     -8.639 +j -4.0388E-006
4             4            8.639 /_ -180.0 =     -8.639 +j -4.0388E-006

ELEMENT = "GICTransformer.T15"
15            1           34.889 /_    0.0 =     34.889 +j -0.00012387
15            2           34.889 /_    0.0 =     34.889 +j -0.00012387
15            3           34.889 /_    0.0 =     34.889 +j -0.00012387
------------
16            1           34.889 /_  180.0 =    -34.889 +j 0.00012387
16            2           34.889 /_  180.0 =    -34.889 +j 0.00012387
16            3           34.889 /_  180.0 =    -34.889 +j 0.00012387
------------
16            1           18.249 /_    0.0 =     18.249 +j -2.1898E-005
16            2           18.249 /_    0.0 =     18.249 +j -2.1898E-005
16            3           18.249 /_    0.0 =     18.249 +j -2.1898E-005
------------
15            4           18.249 /_  180.0 =    -18.249 +j 2.1898E-005
15            4           18.249 /_  180.0 =    -18.249 +j 2.1898E-005
15            4           18.249 /_  180.0 =    -18.249 +j 2.1898E-005

ELEMENT = "Capacitor.T1"
2             4         0.001194 /_   90.0 =  5.6385E-009 +j  0.001194
------------
2             5         0.001194 /_  -90.0 =  -5.6385E-009 +j -0.001194

ELEMENT = "Reactor.SUB1GND"
2             5         0.001194 /_   90.0 =  5.6385E-009 +j  0.001194
------------
2             0         0.001194 /_  -90.0 =  -5.6385E-009 +j -0.001194

ELEMENT = "Reactor.SUB2GND"
17            4           189.29 /_    0.0 =     189.29 +j -0.00013987
------------
17            0           189.29 /_  180.0 =    -189.29 +j 0.00013987

ELEMENT = "Reactor.SUB3GND"
15            4           109.49 /_    0.0 =     109.49 +j -0.00013139
------------
15            0           109.49 /_  180.0 =    -109.49 +j 0.00013139

ELEMENT = "Reactor.SUB4GND"
4             4           124.58 /_    0.0 =     124.58 +j 0.00019243
------------
4             0           124.58 /_ -180.0 =    -124.58 +j -0.00019243

ELEMENT = "Reactor.SUB5GND"
5             4           65.458 /_    0.0 =     65.458 +j 0.0081034
------------
5             0           65.458 /_ -180.0 =    -65.458 +j -0.0081034

ELEMENT = "Reactor.SUB6GND"
6             4           354.52 /_ -180.0 =    -354.52 +j -0.0045134
------------
6             0           354.52 /_    0.0 =     354.52 +j 0.0045134

ELEMENT = "Reactor.SUB8GND"
12            4            134.3 /_ -180.0 =     -134.3 +j -0.0047052
------------
12            0            134.3 /_    0.0 =      134.3 +j 0.0047052

= = = = = = = = = = = = = = = = = = =  = = = = = = = = = = =  = =

Power Conversion Elements

  Bus     Phase    Magnitude, A     Angle      (Real)   +j  (Imag)

ELEMENT = "GICLine.1-BUS2-BUS3"
2             1           15.849 /_ -180.0 =    -15.849 +j -0.00023106
2             2           15.849 /_ -180.0 =    -15.849 +j -0.00023106
2             3           15.849 /_ -180.0 =    -15.849 +j -0.00023106
------------
3             1           15.849 /_    0.0 =     15.849 +j 0.00023106
3             2           15.849 /_    0.0 =     15.849 +j 0.00023106
3             3           15.849 /_    0.0 =     15.849 +j 0.00023106

ELEMENT = "GICLine.2-BUS2-BUS17"
2             1           15.849 /_    0.0 =     15.849 +j -0.00016695
2             2           15.849 /_    0.0 =     15.849 +j -0.00016695
2             3           15.849 /_    0.0 =     15.849 +j -0.00016695
------------
17            1           15.849 /_  180.0 =    -15.849 +j 0.00016695
17            2           15.849 /_  180.0 =    -15.849 +j 0.00016695
17            3           15.849 /_  180.0 =    -15.849 +j 0.00016695

ELEMENT = "GICLine.3-BUS15-BUS4"
15            1           13.944 /_    0.0 =     13.944 +j -0.00011584
15            2           13.944 /_    0.0 =     13.944 +j -0.00011584
15            3           13.944 /_    0.0 =     13.944 +j -0.00011584
------------
4             1           13.944 /_  180.0 =    -13.944 +j 0.00011584
4             2           13.944 /_  180.0 =    -13.944 +j 0.00011584
4             3           13.944 /_  180.0 =    -13.944 +j 0.00011584

ELEMENT = "GICLine.4-BUS17-BUS16"
17            1           29.483 /_ -180.0 =    -29.483 +j -5.9278E-007
17            2           29.483 /_ -180.0 =    -29.483 +j -5.9278E-007
17            3           29.483 /_ -180.0 =    -29.483 +j -5.9278E-007
------------
16            1           29.483 /_    0.0 =     29.483 +j 5.9278E-007
16            2           29.483 /_    0.0 =     29.483 +j 5.9278E-007
16            3           29.483 /_    0.0 =     29.483 +j 5.9278E-007

ELEMENT = "GICLine.5-BUS4-BUS5"
4             1           5.5375 /_ -180.0 =    -5.5375 +j -0.00028714
4             2           5.5375 /_ -180.0 =    -5.5375 +j -0.00028714
4             3           5.5375 /_ -180.0 =    -5.5375 +j -0.00028714
------------
5             1           5.5375 /_    0.0 =     5.5375 +j 0.00028714
5             2           5.5375 /_    0.0 =     5.5375 +j 0.00028714
5             3           5.5375 /_    0.0 =     5.5375 +j 0.00028714

ELEMENT = "GICLine.6-BUS4-BUS5"
4             1           5.5375 /_ -180.0 =    -5.5375 +j -0.00028714
4             2           5.5375 /_ -180.0 =    -5.5375 +j -0.00028714
4             3           5.5375 /_ -180.0 =    -5.5375 +j -0.00028714
------------
5             1           5.5375 /_    0.0 =     5.5375 +j 0.00028714
5             2           5.5375 /_    0.0 =     5.5375 +j 0.00028714
5             3           5.5375 /_    0.0 =     5.5375 +j 0.00028714

ELEMENT = "GICLine.7-BUS5-BUS6"
5             1           46.861 /_  180.0 =    -46.861 +j 0.00048234
5             2           46.861 /_  180.0 =    -46.861 +j 0.00048234
5             3           46.861 /_  180.0 =    -46.861 +j 0.00048234
------------
6             1           46.861 /_    0.0 =     46.861 +j -0.00048234
6             2           46.861 /_    0.0 =     46.861 +j -0.00048234
6             3           46.861 /_    0.0 =     46.861 +j -0.00048234

ELEMENT = "GICLine.8-BUS5-BUS11"
5             1        0.0040821 /_  -90.0 =  -3.8983E-007 +j -0.0040821
5             2        0.0040821 /_  -90.0 =  -3.8983E-007 +j -0.0040821
5             3        0.0040821 /_  -90.0 =  -3.8983E-007 +j -0.0040821
------------
11            1        0.0040821 /_   90.0 =  3.8983E-007 +j 0.0040821
11            2        0.0040821 /_   90.0 =  3.8983E-007 +j 0.0040821
11            3        0.0040821 /_   90.0 =  3.8983E-007 +j 0.0040821

ELEMENT = "GICLine.9-BUS6-BUS11"
6             1           44.766 /_  180.0 =    -44.766 +j 0.0025136
6             2           44.766 /_  180.0 =    -44.766 +j 0.0025136
6             3           44.766 /_  180.0 =    -44.766 +j 0.0025136
------------
11            1           44.766 /_    0.0 =     44.766 +j -0.0025136
11            2           44.766 /_    0.0 =     44.766 +j -0.0025136
11            3           44.766 /_    0.0 =     44.766 +j -0.0025136

ELEMENT = "GICLine.10-BUS4-BUS6"
4             1           32.357 /_  180.0 =    -32.357 +j 0.00016323
4             2           32.357 /_  180.0 =    -32.357 +j 0.00016323
4             3           32.357 /_  180.0 =    -32.357 +j 0.00016323
------------
6             1           32.357 /_    0.0 =     32.357 +j -0.00016323
6             2           32.357 /_    0.0 =     32.357 +j -0.00016323
6             3           32.357 /_    0.0 =     32.357 +j -0.00016323

ELEMENT = "GICLine.11-BUS15-BUS6"
15            1           41.862 /_  180.0 =    -41.862 +j 0.0001818
15            2           41.862 /_  180.0 =    -41.862 +j 0.0001818
15            3           41.862 /_  180.0 =    -41.862 +j 0.0001818
------------
6             1           41.862 /_    0.0 =     41.862 +j -0.0001818
6             2           41.862 /_    0.0 =     41.862 +j -0.0001818
6             3           41.862 /_    0.0 =     41.862 +j -0.0001818

ELEMENT = "GICLine.12-BUS15-BUS6"
15            1           41.862 /_  180.0 =    -41.862 +j 0.0001818
15            2           41.862 /_  180.0 =    -41.862 +j 0.0001818
15            3           41.862 /_  180.0 =    -41.862 +j 0.0001818
------------
6             1           41.862 /_    0.0 =     41.862 +j -0.0001818
6             2           41.862 /_    0.0 =     41.862 +j -0.0001818
6             3           41.862 /_    0.0 =     41.862 +j -0.0001818

ELEMENT = "GICLine.13-BUS11-BUS12"
11            1           44.766 /_ -180.0 =    -44.766 +j -0.0015684
11            2           44.766 /_ -180.0 =    -44.766 +j -0.0015684
11            3           44.766 /_ -180.0 =    -44.766 +j -0.0015684
------------
12            1           44.766 /_    0.0 =     44.766 +j 0.0015684
12            2           44.766 /_    0.0 =     44.766 +j 0.0015684
12            3           44.766 /_    0.0 =     44.766 +j 0.0015684

ELEMENT = "GICLine.14-BUS16-BUS20"
16            1           3.7987 /_    0.0 =     3.7987 +j -0.00020455
16            2           3.7987 /_    0.0 =     3.7987 +j -0.00020455
16            3           3.7987 /_    0.0 =     3.7987 +j -0.00020455
------------
20            1           3.7987 /_  180.0 =    -3.7987 +j 0.00020455
20            2           3.7987 /_  180.0 =    -3.7987 +j 0.00020455
20            3           3.7987 /_  180.0 =    -3.7987 +j 0.00020455

ELEMENT = "GICLine.15-BUS17-BUS20"
17            1           17.765 /_ -180.0 =    -17.765 +j -0.00011974
17            2           17.765 /_ -180.0 =    -17.765 +j -0.00011974
17            3           17.765 /_ -180.0 =    -17.765 +j -0.00011974
------------
20            1           17.765 /_    0.0 =     17.765 +j 0.00011974
20            2           17.765 /_    0.0 =     17.765 +j 0.00011974
20            3           17.765 /_    0.0 =     17.765 +j 0.00011974

